 # crystal structure from rot_dbdt_060.XV
 CRYSTAL
 # Cell vectors in Angstroem:
 PRIMVEC
  20.0000010   0.0000000   0.0000000
   0.0000000  20.0000010   0.0000000
   0.0000000   0.0000000  20.0000010
 # Atom coordinates in Angstroem:
 PRIMCOORD
   28    1
   6          7.66657224          3.03137224          1.84528550
   6          8.50483676          3.03545849          2.99850257
   6          8.01397789          3.03306573          4.42312974
   6          6.77756896          2.47430024          4.86159004
   6         10.67030781          2.41914789          4.08549634
   6         12.07722001          2.31272327          4.15258924
   6         12.89436394          2.82263519          3.10017189
   6         12.26276627          3.44182309          1.99041471
   1         10.05320855          2.02114585          4.91563242
   1         12.54984314          1.82947332          5.03229928
   1         12.82675309          3.87268052          1.14038829
  16         14.65600264          2.65433157          3.26603978
   1         14.98197965          3.24150175          2.06626416
   7         10.27107494          4.17076509          0.73972245
   8          9.03554865          4.11141038          0.59197024
   8         11.05552976          4.73420222         -0.04686154
   6          7.84522396          2.94905450          4.25684909
   6          6.43726600          2.89717500          4.36087338
   6          5.62152163          2.91054764          3.19066961
   6          6.25611336          2.96892884          1.92265054
   1          8.46091182          2.93407257          5.17848552
   1          5.96258676          2.84358759          5.36203277
   1          5.69492424          2.97079720          0.96783057
  16          3.85902192          2.84145035          3.41117932
   1          3.53137917          2.89701151          2.07698531
   7          8.25087201          3.10458270          0.48433915
   8          9.47998854          3.28444340          0.39166144
   8          7.47537654          2.97998024         -0.48210953
