 # crystal structure from dbdt.XV
 CRYSTAL
 # Cell vectors in Angstroem:
 PRIMVEC
  50.0000010   0.0000000   0.0000000
   0.0000000  50.0000010   0.0000000
   0.0000000   0.0000000  50.0000010
 # Atom coordinates in Angstroem:
 PRIMCOORD
   28    1
   6         10.01122276          3.01099997          2.97141754
   6         10.67217155          1.75440447          3.07125746
   6         12.07996810          1.65151541          3.12371998
   6         12.89436393          2.82263519          3.10017189
   6         12.25872782          4.08938677          3.02821747
   6         10.84824985          4.16533266          2.96275346
   1         10.05685544          0.83291892          3.09561941
   1         12.55534126          0.65099207          3.18509018
   1         12.81944399          5.04424688          3.01803366
  16         14.65679813          2.60541773          3.17666698
   1         14.98111053          3.93977077          3.10727818
   7         10.26425797          5.52484130          2.87335555
   8          9.04184690          5.61528521          2.65107201
   8         11.03316999          6.49275182          3.02655052
   6          8.50484328          3.03545852          2.99849783
   6          7.84522396          2.94905449          4.25684909
   6          6.43726601          2.89717499          4.36087339
   6          5.62152163          2.91054763          3.19066961
   6          6.25611336          2.96892884          1.92265054
   6          7.66657224          3.03137224          1.84528550
   1          8.46091182          2.93407256          5.17848552
   1          5.96258676          2.84358759          5.36203277
   1          5.69492424          2.97079719          0.96783057
  16          3.85902192          2.84145036          3.41117931
   1          3.53137917          2.89701152          2.07698531
   7          8.25087200          3.10458270          0.48433915
   8          9.47998854          3.28444340          0.39166144
   8          7.47537654          2.97998024         -0.48210953
