 # crystal structure from dbdt.XV
 CRYSTAL
 # Cell vectors in Angstroem:
 PRIMVEC
  50.0000010   0.0000000   0.0000000
   0.0000000  50.0000010   0.0000000
   0.0000000   0.0000000  50.0000010
 # Atom coordinates in Angstroem:
 PRIMCOORD
   26    1
   7          2.80369409          5.96989091          4.27726174
   7          5.68998817          4.46223086          2.64487201
   6          5.71990257          5.36333607          5.01013437
   6          4.53013188          4.56589218          5.48403330
   6          6.29835804          5.29862576          3.70634883
   6          3.16415190          4.85880495          5.18907970
   8          6.19219539          4.52025198          1.50757778
   8          1.59955153          6.11653616          3.99952812
   8          4.71740487          3.74781007          2.95742147
   8          3.72519537          6.69243989          3.84897493
   6          6.38179265          6.18197685          5.96744800
   6          4.77718253          3.48836827          6.38042306
   6          7.46111387          6.02684785          3.36094254
   6          2.09725091          4.10777648          5.73634226
   6          3.71821339          2.72794347          6.93526223
   6          7.54869551          6.91420757          5.63595807
   6          2.37294440          3.03505987          6.61405850
   6          8.09223728          6.83971133          4.32956334
   1          5.95484780          6.25160513          6.98801916
   1          5.82810307          3.23964007          6.63017380
   1          7.83738577          5.92626078          2.32453168
   1          1.06827107          4.39852237          5.44872051
   1          3.94943907          1.89072383          7.62431455
   1          8.03476346          7.54578326          6.40689909
   1          1.54126987          2.44487977          7.04695058
   1          9.00484849          7.40966164          4.06551167
