 # crystal structure from no2.XV
 CRYSTAL
 # Cell vectors in Angstroem:
 PRIMVEC
  50.0000010   0.0000000   0.0000000
   0.0000000  50.0000010   0.0000000
   0.0000000   0.0000000  50.0000010
 # Atom coordinates in Angstroem:
 PRIMCOORD
    3    1
   7         25.00000059         25.06890263         25.00000048
   8         26.12004740         24.57720509         25.00000048
   8         23.87995336         24.57720504         25.00000048
