 # crystal structure from NPG.XV
 CRYSTAL
 # Cell vectors in Angstroem:
 PRIMVEC
  32.6369723   0.0000000   0.0000000
   0.0000000   8.6967530   0.0000000
   0.0000000   0.0000000  50.0000010
 # Atom coordinates in Angstroem:
 PRIMCOORD
  100    1
   6          0.00000007          7.29656815          0.00000000
   6          1.24937111          6.56649266          0.00000000
   6          1.24555137          5.11928315         -0.00000005
   6          0.00000007          4.38872941         -0.00000005
   6          1.24619729          2.21636601          0.00000000
   6          1.24953736          0.76893316          0.00000000
   6          2.49309896          7.29287202          0.00000000
   6          3.74010395          6.56176622          0.00000000
   6          3.70035939          5.15262828          0.00000000
   6          2.49465339          4.40267291          0.00000000
   6          2.49583716          2.93335081          0.00000000
   6          3.70229617          2.18419686          0.00000000
   6          3.74025760          0.77422029          0.00000000
   6          2.49257536          0.04262460          0.00000000
   6          5.02006523          7.29952410          0.00000005
   6          6.26837476          6.61517180          0.00000000
   1          6.26103666          5.51294148          0.00000000
   1          4.65460023          4.60230319          0.00000000
   1          4.65920857          2.73060862          0.00000005
   1          6.32693867          1.80937780          0.00000005
   6          6.28065083          0.70479422          0.00000000
   6          5.01608515          0.03888370          0.00000005
   6          7.51928179          7.27113036          0.00000000
   6          8.79920453          6.49872851          0.00000000
   6          8.82684929          5.06716125          0.00000000
   1          7.88958101          4.48116510         -0.00000010
   1          8.42890531          0.59194082         -0.00000005
   6          7.49163707          0.00594467          0.00000000
   6         10.05011163          7.15468705          0.00000000
   6         11.29842116          6.47033478          0.00000000
   6         11.30240114          5.03422216          0.00000005
   6         10.03783540          4.36831164          0.00000000
   1          9.99154762          3.26372809          0.00000000
   1         11.65927765          2.34249732         -0.00000010
   1         11.66388599          0.47080268         -0.00000010
   1         10.05744976         -0.43983552          0.00000000
   6         12.57838231          7.20809268          0.00000000
   6         13.82538733          6.47698674          0.00000005
   6         13.82591083          5.03048133          0.00000005
   6         12.57822875          4.29888556          0.00000000
   6         12.61619002          2.88890904          0.00000000
   6         13.82264896          2.13975503          0.00000000
   6         13.82383284          0.67043302          0.00000000
   6         12.61812677         -0.07952237          0.00000000
   6         15.06911512          7.20336622          0.00000000
   6         16.31848613          6.47329066          0.00000000
   6         16.31848613          5.03424304          0.00000000
   6         15.06894880          4.30417283          0.00000000
   6         15.07228896          2.85673987          0.00000000
   6         16.31848619          2.12647698          0.00000000
   6         16.31848616          0.68437653          0.00000000
   6         15.07293488         -0.04617724          0.00000000
   6         17.56785714          7.20336624          0.00000000
   6         18.81158505          6.47698682          0.00000005
   6         18.81106149          5.03048131          0.00000005
   6         17.56802339          4.30417278          0.00000005
   6         17.56468339          2.85673979          0.00000005
   6         18.81432326          2.13975505          0.00000005
   6         18.81313948          0.67043300          0.00000005
   6         17.56403747         -0.04617723          0.00000005
   6         20.05859004          7.20809266          0.00000000
   6         21.33855126          6.47033477          0.00000000
   6         21.33457121          5.03422206          0.00000000
   6         20.05874360          4.29888558          0.00000000
   6         20.02078213          2.88890902          0.00000000
   1         20.97769470          2.34249732         -0.00000010
   1         20.97308636          0.47080269         -0.00000010
   6         20.01884542         -0.07952233          0.00000000
   6         22.58686069          7.15468704          0.00000000
   6         23.83776769          6.49872834          0.00000000
   6         23.81012303          5.06716111          0.00000000
   6         22.59913695          4.36831153          0.00000000
   1         22.64542463          3.26372808          0.00000000
   1         24.20806687          0.59194082          0.00000005
   1         22.57952259         -0.43983559          0.00000000
   6         25.11769049          7.27113047          0.00000000
   6         26.36859759          6.61517181          0.00000000
   1         26.37593563          5.51294139          0.00000005
   1         24.74739137          4.48116512         -0.00000005
   1         26.31003362          1.80937786          0.00000005
   6         26.35632139          0.70479431          0.00000000
   6         25.14533522          0.00594480          0.00000000
   6         27.61690715          7.29952413         -0.00000005
   6         28.89686831          6.56176617         -0.00000005
   6         28.93661292          5.15262820          0.00000000
   1         27.98237202          4.60230318          0.00000000
   1         27.97776381          2.73060865         -0.00000005
   6         28.93467618          2.18419689          0.00000000
   6         28.89671472          0.77422034          0.00000000
   6         27.62088710          0.03888383         -0.00000005
   6         30.14387336          7.29287201         -0.00000005
   6         31.38760134          6.56649260          0.00000000
   6         31.39142098          5.11928318         -0.00000005
   6         30.14231899          4.40267290          0.00000000
   6         30.14113519          2.93335089          0.00000000
   6         31.39077512          2.21636601          0.00000000
   6         31.38743512          0.76893316          0.00000005
   6         30.14439696          0.04262465          0.00000000
   6         32.63697242          2.94662882          0.00000000
   6         32.63697242          0.03886288          0.00000000
