# File created by: sisl 2021-06-25
#
CRYSTAL
#
# Primitive lattice vectors:
#
PRIMVEC
50.00000000 0.00000000 0.00000000 
0.00000000 50.00000000 0.00000000 
0.00000000 0.00000000 50.00000000 
#
# Conventional lattice vectors:
#
CONVVEC
50.00000000 0.00000000 0.00000000 
0.00000000 50.00000000 0.00000000 
0.00000000 0.00000000 50.00000000 
#
# Atomic coordinates (in primitive coordinates)
#
PRIMCOORD
48 1
  7  0.59865390  -1.19548421  0.00000000
  6  1.93136155  -1.22340046  0.00000000
  6  2.72461776  -0.09051318  0.00000000
  6  0.69840482  1.18093806  0.00000000
  6  2.06615272  1.20720016  0.00000000
  6  0.00000000  0.00000000  0.00000000
  1  2.46273585  -2.18996673  0.00000000
  1  2.59921319  2.17283754  0.00000000
  7  -0.03885854  2.46307835  0.00000000
  8  -1.13180330  2.49042389  0.53915210
  8  0.48728041  3.42143831  -0.53915210
  6  4.17461776  -0.09051318  0.00000000
  6  5.35461776  -0.09051318  0.00000000
  6  6.80461776  -0.09051318  0.00000000
  6  7.50961776  -1.31160900  0.00000000
  6  8.91961776  -1.31160900  0.00000000
  6  9.62461776  -0.09051318  0.00000000
  6  8.91961776  1.13058264  0.00000000
  6  7.50961776  1.13058264  0.00000000
  1  6.95811776  -2.26683502  0.00000000
  1  9.47111776  -2.26683502  0.00000000
  1  9.47111776  2.08580866  0.00000000
  1  6.95811776  2.08580866  0.00000000
  1  10.72761776  -0.09051318  0.00000000
  7  -1.28337607  0.56346562  -1.95843524
  6  -2.42522428  0.57662334  -2.64611144
  6  -3.61178370  0.04266143  -2.17744266
  6  -2.41771499  -0.55660960  -0.19320444
  6  -3.61380045  -0.56898768  -0.85701945
  6  -1.29210990  0.00000000  -0.74600000
  1  -2.45917259  1.03219344  -3.65005984
  1  -4.50127006  -1.02411996  -0.38599792
  7  -2.34462301  -1.16091869  1.15472326
  8  -1.53722273  -0.69829801  1.94215446
  8  -3.09583039  -2.08813033  1.40357471
  6  -4.86752053  0.04266143  -2.90244266
  6  -5.88943051  0.04266143  -3.49244266
  6  -7.14516734  0.04266143  -4.21744266
  6  -7.21723776  0.61819853  -5.50261304
  6  -8.43833358  0.61819853  -6.20761304
  6  -9.58735898  0.04266143  -5.62744266
  6  -9.51528857  -0.53287566  -4.34227228
  6  -8.29419275  -0.53287566  -3.63727228
  1  -6.31839023  1.06842364  -5.95646263
  1  -8.49471206  1.06842364  -7.21296263
  1  -10.41413610  -0.98310078  -3.88842268
  1  -8.23781426  -0.98310078  -2.63192268
  1  -10.54258500  0.04266143  -6.17894266
