 # crystal structure from gr.XV
 CRYSTAL
 # Cell vectors in Angstroem:
 PRIMVEC
   2.4674000   0.0000000   0.0000000
  -1.2337000   2.1368311   0.0000000
   0.0000000   0.0000000  24.6740005
 # Atom coordinates in Angstroem:
 PRIMCOORD
    2    1
   6          0.00000000          0.00000000          0.00000000
   6          0.00000000          1.42450003          0.00000000
