# File created by: sisl 2021-07-12
#
CRYSTAL
#
# Primitive lattice vectors:
#
PRIMVEC
20.00000000 0.00000000 0.00000000 
0.00000000 10.00000000 0.00000000 
0.00000000 0.00000000 50.00000000 
#
# Conventional lattice vectors:
#
CONVVEC
20.00000000 0.00000000 0.00000000 
0.00000000 10.00000000 0.00000000 
0.00000000 0.00000000 50.00000000 
#
# Atomic coordinates (in primitive coordinates)
#
PRIMCOORD
28 1
  6  10.00000000  3.00000000  3.00000000
  6  10.70500000  1.77890418  3.00000000
  6  12.11500000  1.77890418  3.00000000
  6  12.82000000  3.00000000  3.00000000
  6  12.11500000  4.22109582  3.00000000
  6  10.70500000  4.22109582  3.00000000
  1  10.15350000  0.82367816  3.00000000
  1  12.66650000  0.82367816  3.00000000
  1  12.66650000  5.17632184  3.00000000
 16  14.62000000  3.00000000  3.00000000
  1  15.96000000  3.00000000  3.00000000
  7  9.96773663  5.50323611  3.00000000
  8  8.74963514  5.45644137  3.00000000
  8  10.61731281  6.53474558  3.00000000
  6  8.50800000  3.00000000  3.00000000
  6  7.80300000  3.00000000  4.22109582
  6  6.39300000  3.00000000  4.22109582
  6  5.68800000  3.00000000  3.00000000
  6  6.39300000  3.00000000  1.77890418
  6  7.80300000  3.00000000  1.77890418
  1  8.35450000  3.00000000  5.17632184
  1  5.84150000  3.00000000  5.17632184
  1  5.84150000  3.00000000  0.82367816
 16  3.88800000  3.00000000  3.00000000
  1  2.54800000  3.00000000  3.00000000
  7  8.54026337  3.00000000  0.49676389
  8  9.75836486  3.00000000  0.54355863
  8  7.89068719  3.00000000  -0.53474558
